/*--------------------------------*- C++ -*----------------------------------*\
| =========                 |                                                 |
| \\      /  F ield         | OpenFOAM: The Open Source CFD Toolbox           |
|  \\    /   O peration     | Version:  v2206                                 |
|   \\  /    A nd           | Website:  www.openfoam.com                      |
|    \\/     M anipulation  |                                                 |
\*---------------------------------------------------------------------------*/
FoamFile
{
    version     2.0;
    format      ascii;
    class       dictionary;
    object      fvSolution;
}
// * * * * * * * * * * * * * * * * * * * * * * * * * * * * * * * * * * * * * //
// solvers
// // {
//     "alpha.water.*"
//     //{
//         nAlphaCorr      1;
//         nAlphaSubCycles 1;
//         alphaOuterCorrectors yes;
//         cAlpha          1;

//         MULESCorr       yes;
//         nLimiterIter    3;

//         solver          smoothSolver;
//         smoother        symGaussSeidel;
//         tolerance       1e-8;
//         relTol          0;
//     }

//     pcorr GAMG
//     {
//         tolerance        1e-7;
//         relTol           0.0;

//         smoother         DIC;//GaussSeidel;
//         nPreSweeps       0;
//         nPostSweeps      2;
//         nFinestSweeps    2;

//         cacheAgglomeration true;
//         nCellsInCoarsestLevel 10;
//         agglomerator     faceAreaPair;
//         mergeLevels      1;
//     };

//     pcorrFinal GAMG
//     {
//         tolerance        1e-7;
//         relTol           0.0;

//         smoother         DIC;//GaussSeidel;
//         nPreSweeps       0;
//         nPostSweeps      2;
//         nFinestSweeps    2;

//         cacheAgglomeration true;
//         nCellsInCoarsestLevel 10;
//         agglomerator     faceAreaPair;
//         mergeLevels      1;
//     };

//     p_rgh GAMG
//     {
//         tolerance        1e-7;
//         relTol           0.0;

//         smoother         DIC;//GaussSeidel;
//         nPreSweeps       0;
//         nPostSweeps      2;
//         nFinestSweeps    2;

//         cacheAgglomeration true;
//         nCellsInCoarsestLevel 10;
//         agglomerator     faceAreaPair;
//         mergeLevels      1;
//     };

//     p_rghFinal GAMG
//     {
//         tolerance        1e-8;
//         relTol           0.0;

//         smoother         DIC;//GaussSeidel;
//         nPreSweeps       0;
//         nPostSweeps      2;
//         nFinestSweeps    2;

//         cacheAgglomeration true;
//         nCellsInCoarsestLevel 10;
//         agglomerator     faceAreaPair;
//         mergeLevels      1;
//     };

//     "(U|k|omega|nut)" PBiCG
//     {
//         preconditioner   DILU;
//         tolerance        1e-09;
//         relTol           0;
//     };

//     "(U|k|omega|nut)Final" PBiCG
//     {
//         preconditioner   DILU;
//         tolerance        1e-09;
//         relTol           0;
//     };

//     gamma PBiCG
//     {
//         preconditioner   DILU;
//         tolerance        1e-07;
//         relTol           0;
//     };
// }
// solvers
// {
//     "alpha.water.*"
//     {
//         // nAlphaCorr      1;
//         // nAlphaSubCycles 3;
//         // cAlpha          1;
//         nAlphaCorr      3;
//         nAlphaSubCycles 1;
//         cAlpha          1;

//         MULESCorr       yes;
//         nLimiterIter    5;
//         alphaApplyPrevCorr  yes;

//         solver          smoothSolver;
//         smoother        symGaussSeidel;
//         tolerance       1e-8;
//         relTol          0;
//     }

//     "pcorr.*"
//     {
//         solver          PCG;
//         preconditioner  DIC;
//         tolerance       1e-6;
//         relTol          0;
//     }

//     p_rgh
//     {
//         solver          PCG;
//         preconditioner  DIC;
//         tolerance       1e-6;
//         relTol          0.1;
//     }

//     p_rghFinal
//     {
//         solver          GAMG;
//         smoother        DIC;
//         tolerance       1e-7;
//         relTol          0;
//     }

//     "(U|k|omega|nut)" 
//     {
//         solver          PBiCG;
//         preconditioner  DILU;
//         tolerance       1e-6;
//         relTol          0.1;
//     }

//     "(U|k|omega|nut)Final"
//     {
//         solver          PBiCG;
//         preconditioner  DILU;
//         tolerance       1e-6;
//         relTol          0;
//     }
// }
solvers
{
    "alpha.water.*"
    {
        nAlphaCorr      3;
        nAlphaSubCycles 1;
        cAlpha          1;

        MULESCorr       yes;
        nLimiterIter    5;
        alphaApplyPrevCorr  yes;

        solver          smoothSolver;
        smoother        symGaussSeidel;
        tolerance       1e-8;
        relTol          0;
    }

    "pcorr.*"
    {
        solver          PCG;
        preconditioner
        {
            preconditioner  GAMG;
            tolerance       1e-8;
            relTol          0;
            smoother        DICGaussSeidel;
            cacheAgglomeration no;
        }
        tolerance       1e-08;
        relTol          0;
        maxIter         100;
    }

    p_rgh
    {
        solver          GAMG;
        tolerance       1e-8;
        relTol          0.01;
        smoother        DIC;
    }

    p_rghFinal
    {
        solver          PCG;
        preconditioner
        {
            preconditioner  GAMG;
            tolerance       1e-8;
            relTol          0;
            nVcycles        2;
            smoother        DICGaussSeidel;
            nPreSweeps      2;
        }
        tolerance       1e-8;
        relTol          0;
        maxIter         20;
    }

    "(U|k|omega|nut)"
    {
        solver          smoothSolver;
        smoother        symGaussSeidel;
        tolerance       1e-8;
        relTol          0.0;
        // nSweeps         1;
    }

    "(U|k|omega|nut)Final"
    {
        solver          smoothSolver;
        smoother        symGaussSeidel;
        tolerance       1e-8;
        relTol          0;
        // nSweeps         1;
    }
}
PIMPLE
{
    // momentumPredictor no;
    // nCorrectors     2;
    // nNonOrthogonalCorrectors 0;

    // momentumPredictor off;
    // nCorrectors     3; 
    // nNonOrthogonalCorrectors 1;       
    // nOuterCorrectors 2; 
    momentumPredictor   off;
    nOuterCorrectors    3;
    nCorrectors         2;
    nNonOrthogonalCorrectors 0; 
    correctPhi          yes;
    // moveMeshOuterCorrectors yes;
    turbOnFinalIterOnly false;

}

relaxationFactors
{
    fields
    {
    }
    equations
    {
        ".*" 1;
    }
}

// ************************************************************************* //
