/*--------------------------------*- C++ -*----------------------------------*\
| =========                 |                                                 |
| \\      /  F ield         | OpenFOAM: The Open Source CFD Toolbox           |
|  \\    /   O peration     | Version:  v2206                                 |
|   \\  /    A nd           | Website:  www.openfoam.com                      |
|    \\/     M anipulation  |                                                 |
\*---------------------------------------------------------------------------*/
FoamFile
{
    version     2.0;
    format      ascii;
    class       dictionary;
    object      sampleDict;
}
// * * * * * * * * * * * * * * * * * * * * * * * * * * * * * * * * * * * * //

// line
// {
//     type            sets;
//     libs            (sampling);
//     enabled         true;
//     writeControl    adjustable;

//     writeInterval   0.1;

//     interpolationScheme cellPoint;
//     setFormat       raw;
//     fixedLocations  false;

//     fields
//     (
//         U
//         alpha.water
//     );

//     sets
//     {
//         line1
//         {
//             type    uniform;
//             axis    distance;
//             start   ( 1.0 0.005 0.0 );
//             end     ( 1.0 0.005 0.8 );
//             nPoints 1001;
//         }
//     }
// }

surface
{
    type            surfaces;
    libs            (sampling);
    surfaceFormat vtk;
    interpolationScheme cellPoint;
    writeControl    adjustable;
    writeInterval   0.1;

    fields
    (
        p
        U
        alpha.water
    );

    surfaces
    (
        interpolatedIso
        {
            type            isoSurface;    // always triangulated
            isoField        alpha.water;
            isoValue        0.5;
            interpolate     true;
        }
    );
}
