/*--------------------------------*- C++ -*----------------------------------*\
| =========                 |                                                 |
| \\      /  F ield         | OpenFOAM: The Open Source CFD Toolbox           |
|  \\    /   O peration     | Version:  v2206                                 |
|   \\  /    A nd           | Website:  www.openfoam.com                      |
|    \\/     M anipulation  |                                                 |
\*---------------------------------------------------------------------------*/
FoamFile
{
    version     2.0;
    format      ascii;
    class       dictionary;
    object      sampleDict;
}
// * * * * * * * * * * * * * * * * * * * * * * * * * * * * * * * * * * * * //

surface
{
    type            surfaces;
    libs            (sampling);
    surfaceFormat vtk;
    interpolationScheme cellPoint;
    writeControl    adjustable;
    writeInterval   0.1;

    fields
    (
        p
        U
        alpha.water
    );

    surfaces
    (
        interpolatedIso
        {
            type            isoSurface;    // always triangulated
            isoField        alpha.water;
            isoValue        0.5;
            interpolate     true;
        }
    );
}
